/*--------------------------------*- C++ -*----------------------------------*\
| =========                 |                                                 |
| \\      /  F ield         | OpenFOAM: The Open Source CFD Toolbox           |
|  \\    /   O peration     | Version:  v2012                                 |
|   \\  /    A nd           | Website:  www.openfoam.com                      |
|    \\/     M anipulation  |                                                 |
\*---------------------------------------------------------------------------*/
FoamFile
{
    version     2.0;
    format      ascii;
    class       dictionary;
    object      thermophysicalProperties.liquid;
}
// * * * * * * * * * * * * * * * * * * * * * * * * * * * * * * * * * * * * * //

thermoType
{
    type            heRhoThermo;
    mixture         pureMixture;
    transport       const;
    thermo          hConst;
    equationOfState rhoConst;//Boussinesq;
    specie          specie;
    energy          sensibleEnthalpy;
}

mixture
{
    specie
    {
        nMoles          1;
        molWeight       46.76658;
    }
    equationOfState
    {
	/*        
	beta            8e-6;        
	rho0            4400;
	T0              1920;
	*/
	rho             4100;
    }
    thermodynamics
    {
        Cp              976.36;
        Hf              0;
    }
    transport
    {
        mu              0.0026;
        Pr              0.076;
	kappa           33.9;
    }
}

// ************************************************************************* //
